LAMMPS (29 Sep 2021 - Update 1)
units metal
atom_style charge
atom_modify map array
pair_style buck/coul/long 12
kspace_style pppm 1.0e-4
read_data ../LSF_supercell_md3.lmp
Reading data file ...
  orthogonal box = (-0.80191730 -0.31750700 -0.64594845) to (80.801917 80.317507 80.645948)
  reading atoms ...
  41069 atoms
  reading velocities ...
  41069 velocities
thermo 5
min_style fire
minimize 0.0 1e-08 1000 100000
PPPM initialization ...
  G vector (1/distance) = 0.25538187
  grid = 60 60 60
  stencil order = 5
  estimated absolute RMS force accuracy = 0.0015746464
  estimated relative force accuracy = 0.00010935314
  3d grid and FFT values/proc = 91723 54000
  update every 1 steps, delay 0 steps, check yes
  Parameters for fire:
    dmax delaystep dtgrow dtshrink alpha0 alphashrink tmax tmin    integrator halfstepback
     0.1        20    1.1      0.5   0.25        0.99   10 0.02 eulerimplicit          yes
Step Temp E_pair E_mol TotEng Press
0            0     -1106790            0     -1106790   -18985.732
Averages over the last 101 of 201 rows, steps 500 to 1000:
Temp E_pair E_mol TotEng Press
0.0392146 -1.11668e+06 0 -1.11668e+06 -55069
Loop time of 687.196 on 4 procs for 1000 steps with 41069 atoms

Minimization stats:
  Stopping criterion = max iterations
  Energy initial, next-to-last, final =
  Force two-norm initial, final = 619.23590 0.43529348
  Force max component initial, final = 12.518491 0.12043885
  Final line search alpha, max atom move = 0.0000000 0.0000000
  Iterations, force evaluations = 1000 1050

write_data LSF_min.lmp
System init for write_data ...
PPPM initialization ...
  G vector (1/distance) = 0.25538187
  grid = 60 60 60
  stencil order = 5
  estimated absolute RMS force accuracy = 0.0015746464
  estimated relative force accuracy = 0.00010935314
  3d grid and FFT values/proc = 91723 54000
